FoamFile
{
    version     2.0;
    format      ascii;
    class       dictionary;
    location    "system";
    object      controlDict;
}

application     aerosolEulerFoam;

startFrom       latestTime;

startTime       0.0;

stopAt          endTime;

endTime         0.5;

deltaT          1E-05;

writeControl    adjustableRunTime;

writeInterval   0.05;

purgeWrite      0;

writeFormat     binary;

writePrecision  14;

writeCompression off;

timeFormat      general;

timePrecision   6;

runTimeModifiable false;

adjustTimeStep  yes;

maxCo           0.5;

libs 		("libgroovyBC.so");

startAveraging  10.0;
