FoamFile
{
    version     2.0;
    format      ascii;
    class       volScalarField;
    location    "0";
    object      M;
}

dimensions      [-1 0 0 0 0 0 0];

internalField   uniform 0.0;

boundaryField
{
    inlet
    {
        type            sectionalConstant;
        value           uniform 0.0;
    }
    outlet
    {
        type            zeroGradient;
    }
    walls
    {
        type            zeroGradientAbsorbingWall;
        value           uniform 0.0;
    }
}
