FoamFile
{
    version     2.0;
    format      ascii;
    class       volVectorField;
    location    "0";
    object      U;
}

dimensions      [0 1 -1 0 0 0 0];

internalField   uniform (0 0 0);

boundaryField
{
    outlet
    {
        type            zeroGradient;
    }
    inlet
    {
     	type            groovyBC;
        value           uniform (1 0 0);
        valueExpression "value";
        variables       "tc=7.86e-03;Umax=2*3.80316039824;R=4E-3/2;yc=5.7*R;zc=0.0;t=time();transient=(t<tc?t/tc:1);dy=pos().y-yc;dz=pos().z-zc;para=-(1.0-(sqr(dy)+sqr(dz))/sqr(R))*normal();value=para*Umax*transient;";
    }
    walls
    {
        type            fixedValue;
        value           uniform (0 0 0);
    }
}
