FoamFile
{
    version     2.0;
    format      ascii;
    class       volScalarField;
    location    "0";
    object      p1;
}

dimensions      [1 -1 -2 0 0 0 0];

internalField   uniform 0.0;

boundaryField
{
    outlet
    {
        type            fixedValue;
        value           uniform 0.0;
    }
    inlet
    {
        type            zeroGradient;
    }
    walls
    {
        type            zeroGradient;
    }
}
