FoamFile
{
    version     2.0;
    format      ascii;
    class       dictionary;
    location    "constant";
    object      aerosolModelProperties;
}

aerosolModel                sectionalFrederix;

aerosolModelParameters
{
    doDrift                 false;
    doCoa                   false;
    doNuc                   true;
    doCond                  true;
    doCorrSizeDist          false;
    doMonitors              true;

    sizeDistributionType    logarithmic;
    yMin                    1E-24;
    yMax                    1E-12;
    P                       32;

    distMethod              twoMoment;
    phi  	                1;
    solveInZeta             false;
}
