FoamFile
{
    version     2.0;
    format      ascii;
    class       dictionary;
    location    "constant";
    object      condensationEvaporationProperties;
}

condensationEvaporationModel    multiSpeciesMillerSirignano;

condensationEvaporationModelParameters
{
    Sherwood    natural;
    potential   classical;
    diffusion   speciesSpecific;
}
