FoamFile
{
    version     2.0;
    format      ascii;
    class       volScalarField;
    location    "0";
    object      Water.continuous;
}

dimensions      [0 0 0 0 0 0 0];

internalField   uniform 0.0118494464134;

boundaryField
{
    walls
    {
        type            zeroGradient;
    }
}
