FoamFile
{
    version     2.0;
    format      ascii;
    class       dictionary;
    location    "constant";
    object      aerosolModelProperties;
}
aerosolModel                twoMomentLogNormalFrederix;

aerosolModelParameters
{
    doDrift                 false;
    doCoa                   false;
    doNuc                   true;
    doCond                  true;
    doCorrSizeDist          false;
    doMonitors              true;

    sizeDistributionType    none;
    W                       1.33333333;
    M                       16;
    Dcrit                   1E-9;
    maxIter                 99;
    TOL                     1E-14;
}
