FoamFile
{
    version     2.0;
    format      ascii;
    class       dictionary;
    location    "constant";
    object      nucleationProperties;
}

nucleationModel  multiSpeciesFrederix;

Coeffs
{
    TOL 1E-10;
}
