FoamFile
{
    version     2.0;
    format      ascii;
    class       dictionary;
    location    "system";
    object      controlDict;
}

application     aerosolEulerFoam;

startFrom       latestTime;

startTime       0.0;

stopAt          endTime;

endTime         2.187;

deltaT          1E-06;

maxDeltaT       1E-03;

writeControl    adjustableRunTime;

writeInterval   7.29e-02;

purgeWrite      0;

writeFormat     binary;

writePrecision  14;

writeCompression off;

timeFormat      general;

timePrecision   8;

runTimeModifiable true;

adjustTimeStep  yes;

maxCo           0.5;

libs 		("libgroovyBC.so");

startAveraging  999.0;
