FoamFile
{
    version     2.0;
    format      ascii;
    class       dictionary;
    location    "system";
    object      decomposeParDict;
}

numberOfSubdomains 10;

method             scotch;

simpleCoeffs
{
    n              ( 1 1 1 );
    delta          1E-3;
}
