FoamFile
{
    version     2.0;
    format      ascii;
    class       dictionary;
    location    "system";
    object      fvSolution;
}

solvers
{
    "U|V|Y|Z|M|T"
    {
        solver          PBiCG;
        preconditioner  DILU;
        tolerance       1E-7;
        relTol          0;
    }
    rho
    {
        solver          diagonal;
    }
    p1
    {
        solver          PCG;
        preconditioner
        {
            preconditioner          GAMG;
            tolerance               1e-03;
            relTol                  1e-02;
            smoother                DICGaussSeidel;
            nPreSweeps              0;
            nPostSweeps             2;
            nFinestSweeps           2;
            cacheAgglomeration      true;
            nCellsInCoarsestLevel   150;
            agglomerator            faceAreaPair;
            mergeLevels             1;
        }
        tolerance       1e-7;
        relTol          0;
    }
}

PISO
{
    nCorrectors         3;
    residualCorrector   0.0;
    updateCoeffs        false;
    relTol              0.0;
    theta               1.0;
    nNonOrthogonalCorrectors 0;
}
