FoamFile
{
    version         2.0;
    format          ascii;
    class           dictionary;
    location        "system";
    object          controlDict;
}

application     aerosolEulerFoam;

startFrom       latestTime;

startTime       0;

stopAt          endTime;

endTime         500;

deltaT          1;

writeControl    adjustableRunTime;

writeInterval   100;

purgeWrite      0;

writeFormat     binary;

writePrecision  10;

writeCompression no;

timeFormat      general;

timePrecision   6;

runTimeModifiable true;

adjustTimeStep  no;

maxCo           0.5;

maxAerosolCo    0.001;

maxDeltaT       1E-5;

libs            ("libcustomFunctions.so");

functions
{
    dcm
    {
        type            countMeanDiameter;
        libs            ("libaerosolModels.so");
        writeControl    writeTime;
    }
    probes
    {
        type            probes;
        libs            ("libsampling.so");
        writeControl    timeStep;
        writeInterval   1;
        startTime       2E-6;
        probeLocations
        (
            (0.5 0.5 0.5)
        );
        fields
        (
            "(Air|Water).(continuous|dispersed)"
            M
            "M\.[0-9]+"
            dcm
            rho
        );
    }
}
