FoamFile
{
    version     2.0;
    format      ascii;
    class       dictionary;
    location    "constant";
    object      aerosolModelProperties;
}

aerosolModel sectionalFrederix;

aerosolModelParameters
{
    sizeDistributionType    list;
    P                       28;
    yMin                    4.18879020479e-24;
    yMax                    2.15719875566e-12;
    distMethod              hybrid;
    phi                     1.0;
    solveInZeta             false;

    doDrift                 true;
    doCoa                   false;
    doNuc                   false;
    doCond                  false;
    doCorrSizeDist          false;
    doMonitors              false;
}
