FoamFile
{
    version     2.0;
    format      ascii;
    class       dictionary;
    location    "constant";
    object      aerosolModelProperties;
}

aerosolModel sectionalFrederix;

aerosolModelParameters
{
    sizeDistributionType    list;
    P                       32;
    x                       (4.213279e-15 2.189284e-14 4.710589e-14 7.803102e-14 1.137585e-13 1.537125e-13 1.974855e-13 2.447694e-13 2.953205e-13 3.489399e-13 4.054611e-13 4.647420e-13 5.266599e-13 5.911067e-13 6.579868e-13 7.272149e-13 7.987137e-13 8.724133e-13 9.482499e-13 1.026165e-12 1.106104e-12 1.188018e-12 1.271859e-12 1.357585e-12 1.445155e-12 1.534530e-12 1.625676e-12 1.718558e-12 1.813145e-12 1.909406e-12 2.007312e-12 2.106837e-12 );
    y                       (0.000000e+00 1.191695e-14 3.370623e-14 6.192230e-14 9.533562e-14 1.332356e-13 1.751427e-13 2.207050e-13 2.696498e-13 3.217577e-13 3.768471e-13 4.347646e-13 4.953784e-13 5.585734e-13 6.242481e-13 6.923124e-13 7.626849e-13 8.352925e-13 9.100682e-13 9.869510e-13 1.065885e-12 1.146817e-12 1.229700e-12 1.314489e-12 1.401142e-12 1.489619e-12 1.579884e-12 1.671902e-12 1.765640e-12 1.861068e-12 1.958155e-12 2.056874e-12 2.157199e-12 );
    yMin                    4.18879020479e-24;
    yMax                    2.15719875566e-12;
    distMethod              hybrid;
    phi                     1.0;
    solveInZeta             false;

    doDrift                 true;
    doCoa                   false;
    doNuc                   false;
    doCond                  false;
    doCorrSizeDist          false;
    doMonitors              false;
}
