FoamFile
{
    version     2.0;
    format      ascii;
    class       dictionary;
    location    "constant";
    object      nucleationProperties;
}

nucleationModel  zeroTerm;

Coeffs
{
}
