FoamFile
{
    version     2.0;
    format      ascii;
    class       volScalarField;
    location    "0";
    object      AirY;
}

dimensions      [0 0 0 0 0 0 0];

internalField   uniform 1.0;

boundaryField
{
    movingWall
    {
     	type            zeroGradient;
    }

    fixedWalls
    {
     	type            zeroGradient;
    }

    frontAndBack
    {
     	type            empty;
    }
}
