FoamFile
{
    version     2.0;
    format      ascii;
    class       volScalarField;
    location    "0";
    object      p1;
}

dimensions      [1 -1 -2 0 0 0 0];

internalField   uniform 0.0;

boundaryField
{
    movingWall
    {
     	type            zeroGradient;
    }

    fixedWalls
    {
     	type            zeroGradient;
    }

    frontAndBack
    {
     	type            empty;
    }
}
