FoamFile
{
    version     2.0;
    format      ascii;
    class       volScalarField;
    location    "0";
    object      T;
}

dimensions      [0 0 0 1 0 0 0];

internalField   uniform 373.15;

boundaryField
{
    movingWall
    {
        type                fixedValue;
        value               uniform 273.15;
    }

    fixedWalls
    {
        type                fixedValue;
        value               uniform 273.15;
    }

    frontAndBack
    {
     	type            empty;
    }
}
