FoamFile
{
    version     2.0;
    format      ascii;
    class       dictionary;
    location    "system";
    object      controlDict;
}

application     aerosolEulerFoam;

startFrom       latestTime;

startTime       0;

stopAt          endTime;

endTime         10.0;

deltaT          1e-4;

maxDeltaT       1e-2;

writeControl    adjustableRunTime;

writeInterval   0.1;

purgeWrite      0;

writeFormat     binary;

writePrecision  20;

writeCompression uncompressed;

timeFormat      general;

timePrecision   10;

runTimeModifiable yes;

adjustTimeStep  no;

maxCo           0.5;

startAveraging  1E99;

libs            ("libgroovyBC.so");
