/*--------------------------------*- C++ -*----------------------------------*\
| =========                 |                                                 |
| \\      /  F ield         | OpenFOAM: The Open Source CFD Toolbox           |
|  \\    /   O peration     | Version:  1.5                                   |
|   \\  /    A nd           | Web:      http://www.OpenFOAM.org               |
|    \\/     M anipulation  |                                                 |
\*---------------------------------------------------------------------------*/
FoamFile
{
    version     2.0;
    format      ascii;
    class       dictionary;
    object      blockMeshDict;
}

convertToMeters 1;

vertices
(
    ( 0.0   0.0 0.0)
    ( 0.75  0.0 0.0)
    ( 0.0  -0.000218096936577626 0.00499524110792016)
    ( 0.75 -0.000218096936577626 0.00499524110792016)
    ( 0.75  0.000218096936577626 0.00499524110792016)
    ( 0.0   0.000218096936577626 0.00499524110792016)
);

blocks
(
    hex (0 1 1 0 2 3 4 5) (100 1 8) simpleGrading (1 1 1)
);


edges
(
    arc 2 5 (0.0  0.0 0.005)
    arc 3 4 (0.75 0.0 0.005)
);

boundary
(
    inlet
    {
        type patch;
        faces
        (
            (0 2 5 0)
        );
    }

    outlet
    {
        type patch;
        faces
        (
            (1 3 4 1)
        );
    }

    wall
    {
        type wall;
        faces
        (
            (2 3 4 5)
        );
    }

    front
    {
        type wedge;
        faces
        (
            (0 1 3 2)
        );
    }

    back
    {
        type wedge;
        faces
        (
            (0 1 4 5)
        );
    }

    axis
    {
        type symmetryPlane;
        faces
        (
            (0 1 1 0)
        );
    }
);

mergePatchPairs
(
);
