FoamFile
{
    version     2.0;
    format      ascii;
    class       dictionary;
    location    "constant";
    object      aerosolProperties;
}

aerosolModel    none;

submodels
{
    condensation
    {
        type        none;
    }

    nucleation
    {
        type        none;
    }

    coalescence
    {
        type        none;
    }

    driftFluxModel
    {
        diffusion
        {
            type    none;
        }

        Brownian
        {
            type    none;
        }

        inertial
        {
            type    none;
        }
    }
}
