FoamFile
{
    version     2.0;
    format      ascii;
    class       volScalarField;
    location    "0";
    object      AloxiteZ;
}

#include "commonSettings";

dimensions      [0 0 0 0 0 0 0];

internalField   uniform 0.0;

boundaryField
{
    inlet
    {
        type            groovyBC;
        value           uniform 0.0;
        valueExpression "t<$to?0.0:$Zmax";
        variables       "t=time();";
    }

    outletFlow
    {
     	type            zeroGradient;
    }

    outletProbe
    {
        type            zeroGradient;
    }

    top
    {
     	type            zeroGradient;
    }

    wedgeFront
    {   
        type            wedge;
    }

    wedgeBack 
    {   
        type            wedge;
    }

    axis
    {
        type            symmetryPlane;
    }

    wallProbe
    {
        type            zeroGradient;
    }
}
