FoamFile
{
    version     2.0;
    format      ascii;
    class       volVectorField;
    location    "0";
    object      U;
}

#include "commonSettings";

dimensions      [0 1 -1 0 0 0 0];

internalField   uniform (0 0 0);

boundaryField
{
    inlet
    {
        type            groovyBC;
        value           uniform (0 0 0);
        valueExpression "-$Uinlet*normal()*transient";
        variables       "t=time();transient=(t<$tc?t/$tc:1);";
    }

    outletFlow
    {
        type            zeroGradient;
    }

    outletProbe
    {
        type            zeroGradient;
    }

    top
    {
        type            zeroGradient;
    }

    wedgeFront
    {   
        type            wedge;
    }

    wedgeBack 
    {   
        type            wedge;
    }

    axis
    {
        type            symmetryPlane;
    }

    wallProbe
    {
        type            fixedValue;
        value           uniform (0 0 0);
    }
}
