FoamFile
{
    version     2.0;
    format      ascii;
    class       dictionary;
    location    "constant";
    object      aerosolModelProperties;
}

aerosolModel sectionalFrederix;

aerosolModelParameters
{
    sizeDistributionType    logarithmic;
    yMin                    2E-15;
    yMax                    2E-11;
    P                       10;
    distMethod              hybrid;
    phi                     1.0;
    solveInZeta             false;

    doDrift                 true;
    doCoa                   false;
    doNuc                   false;
    doCond                  false;
    doCorrSizeDist          false;
    doMonitors              true;
}
