FoamFile
{
    version     2.0;
    format      ascii;
    class       volScalarField;
    object      Water.continuous;
}

dimensions      [0 0 0 0 0 0 0];

internalField   uniform 0.0;

boundaryField
{
    movingWall
    {
        type            fixedValue;
        value           $internalField;
    }

    fixedWalls
    {
        type            zeroGradient;
    }

    frontAndBack
    {
        type            empty;
    }
}
