FoamFile
{
    version     2.0;
    format      ascii;
    class       dictionary;
    location    "constant";
    object      fluidThermoProperties;
}

fluidThermoModel compressible;

fluidThermoModelParameters
{
    massConservationTolerance  0.2;
    massConservationRelaxation 0.0;
    p0                         p0 [1 -1 -2 0 0 0 0] 1E5;
    rholMin                    1000.0;
    rholMax                    1000.0;
    rhovMin                    0.9;
    rhovMax                    1.3;
}

Species
{
    Air
    {
        moleWeight          29.0;
        phaseChange         false;
        Tc                  1000;

        vaporProperties
        {
            psi             polynomial
            (
                (3.487898513603e-03 -1.000) // Perfect gas
            );
            k               constant 2.70e-2;
            mu              constant 1.81e-5;
            Cp              constant 1.004e+3;
            gamma           constant 1.4;
            diffusivity
            {
                Water       FullerShettlerGiddings;
            }
            Vd              10;
        }

        liquidProperties
        {
            rho             constant 1.0e+3;
            Cp              constant 1.004e+3;
            gamma           constant 1.4;
            mu              constant 0.0;
            k               constant 0.0;
            Hvap            constant 0.0;
        }
    }

    Water
    {
        moleWeight          18.01528;
        phaseChange         false;
        Tc                  1000;

        vaporProperties
        {
            psi             constant 1E-5;
            k               constant 0.0;
            mu              constant 0.0;
            Cp              constant 0.0;
            gamma           constant 1.4;
            Vd              10;
        }

        liquidProperties
        {
            rho             constant 1E3;
            k               constant 0.0;
            mu              constant 0.0;
            Cp              constant 0.0;
            gamma           constant 1.4;
            Hvap            constant 0.0;
        }
    }
}
