FoamFile
{
    version         2.0;
    format          ascii;
    class           dictionary;
    location        "system";
    object          controlDict;
}

application     aerosolEulerFoam;

startFrom       latestTime;

startTime       0;

stopAt          endTime;

endTime         0.04;

deltaT          1E-5;

writeControl    adjustableRunTime;

writeInterval   1E-2;

purgeWrite      0;

writeFormat     binary;

writePrecision  10;

writeCompression no;

timeFormat      general;

timePrecision   6;

runTimeModifiable true;

adjustTimeStep  no;

maxCo           0.5;

maxAerosolCo    0.001;

maxDeltaT       1E-5;

libs            ("libcustomFunctions.so");

functions
{
    dcm
    {
        type            countMeanDiameter;
        functionObjectLibs ("libaerosolModels.so");
        writeControl    writeTime;
    }
    probes
    {
        type            probes;
        functionObjectLibs ("libsampling.so");
        writeControl    timeStep;
        writeInterval   1;
        startTime       2E-6;
        probeLocations
        (
            (0.5E-4 0.5E-4 0.5E-4)
        );
        fields
        (
            "(Air|Water|PG|VG).(continuous|dispersed)"
            M
            "M\.[0-9]+"
            dcm
            rho
            T
        );
    }
}
