FoamFile
{
    version     2.0;
    format      ascii;
    class       dictionary;
    location    "system";
    object      plausibilityLimits;
}

limits
{
    YMin           -0.1;
    YMax            1.1;
    ZMin           -0.1;
    ZMax            1.1;
    rhoMin          0.5;
    rhoMax          2.0;
    TMin            270;
    TMax            320;
}

