FoamFile
{
    version     2.0;
    format      ascii;
    class       dictionary;
    location    "constant";
    object      fluidThermoProperties;
}

fluidThermoModel incompressible;

fluidThermoModelParameters
{
    massConservationTolerance   1e-10;
    massConservationRelaxation  0.0;
    p0                          p0 [1 -1 -2 0 0 0 0] 101325.0;
    rholMin                     995.0;
    rholMax                     1005.0;
    rhovMin                     1.1;
    rhovMax                     1.3;
    rhoValue                    1.0;
}

Species
{
    Air
    {
        moleWeight          29.0;
        phaseChange         false;
        diffusionVolume     0.0; 
        Tc                  1000;

        vaporProperties
        {
            rho             constant 1.0;
            k               constant 2.70e-2;
            mu              constant 1E-4;
            Cp              constant 1.004e+3;
            gamma           constant 1.4;
        }

        liquidProperties
        {
            rho             constant 1.0e+3;
            Cp              constant 1.004e+3;
            gamma           constant 1.4;
            mu              constant 0.0;
            k               constant 0.0;
        }
    }
}
