FoamFile
{
    version     2.0;
    format      ascii;
    class       volScalarField;
    location    "0";
    object      alphat;
}

dimensions      [1 -1 -1 0 0 0 0];

internalField   uniform 0.0;

boundaryField
{
    "inlet.*"
    {
        type        fixedValue;
        value       $internalField;
    }

    outlet
    {
        type        inletOutlet;
        inletValue  $internalField;
        value       $internalField;
    }

    "wall.*"
    {
        type        compressible::alphatWallFunction;
        Prt         0.85;
        value       $internalField;
    }

    front
    {
        type        wedge;
    }

    back
    {
        type        wedge;
    }

    axis
    {
        type        empty;
    }
}
