FoamFile
{
    version     2.0;
    format      ascii;
    class       volScalarField;
    location    "0";
    object      T;
}

dimensions      [0 0 0 1 0 0 0];

internalField   uniform 523.15;

boundaryField
{
    inlet1-vapor
    {
        type        fixedValue;
        value       $internalField;
    }

    inlet2-heating
    {
        type        fixedValue;
        value       $internalField;
    }

    inlet3-cooling
    {
        type        fixedValue;
        value       uniform 293.15;
    }

    outlet
    {
        type        inletOutlet;
        inletValue  $internalField;
        value       $internalField;
    }

    "wall.*"
    {
        type        zeroGradient;
    }

    front
    {
        type        wedge;
    }

    back
    {
        type        wedge;
    }

    axis
    {
        type        empty;
    }
}
