FoamFile
{
    version     2.0;
    format      ascii;
    class       dictionary;
    location    "system";
    object      controlDict;
}

application     aerosolEulerFoam;

startFrom       latestTime;

startTime       0.0;

stopAt          endTime;

endTime         5.0;

deltaT          1E-05;

writeControl    adjustableRunTime;

writeInterval   0.1; 

purgeWrite      0;

writeFormat     binary;

writePrecision  14;

writeCompression off;

timeFormat      general;

timePrecision   6;

runTimeModifiable true;

adjustTimeStep  yes;

maxCo           0.9;

libs 		("libgroovyBC.so");
