FoamFile
{
    version     2.0;
    format      ascii;
    class       dictionary;
    location    "system";
    object      funkySetFieldsDict;
}

expressions
(
    DBP
    {
        field        DBPY;
        variables    "L=0.075;";
        expression   "8.649337980058065e-04*max(1-mag(pos()-vector(L/2,L/2,0.1*L/2))/(L/2),0)";
    }
    Air
    {
        field        AirY;
        expression   "1.0-DBPY";
    }
);

