FoamFile
{
    version     2.0;
    format      ascii;
    class       dictionary;
    location    "system";
    object      sampleDict;
}

interpolationScheme cellPointFace;

setFormat raw;

surfaceFormat raw;

sets 
(
    verticalProfile
    {
        type        uniform;
        axis        xyz;
        start       (0.0375 0.0   0.000375);
        end         (0.0375 0.075 0.000375);
        nPoints     512;
    }   
    horizontalProfile
    {   
        type        uniform;
        axis        xyz;
        start       (0.0   0.0375 0.000375);
        end         (0.075 0.0375 0.000375);
        nPoints     512;
    }
);

surfaces
(
    slice
    {
        type plane;
        basePoint (0.0375 0.0375 0.000375);
        normalVector (0 0 1);
    }
);

fields
(
    T
    DBPY
    DBPZ
    mJnuc
    mS.0
    mJcoa
    U
    rho
    M.00
    M.01
    M.02
    M.03
    M.04
    M.05
    M.06
    M.07
    M.08
    M.09
    M.10
    M.11
    M.12
    M.13
    M.14
    M.15
    M.16
    M.17
    M.18
    M.19
    M.20
    M.21
    M.22
    M.23
    M.24
    M.25
    M.26
    M.27
    M.28
    M.29
    M.30
    M.31
);
