FoamFile
{
    version     2.0;
    format      ascii;
    class       volScalarField;
    location    "0";
    object      AirY;
}

#include "commonSettings";

dimensions      [0 0 0 0 0 0 0];

internalField   uniform 1.0;

boundaryField
{
    inlet
    {
        type            groovyBC;
        value           uniform 1.0;
        valueExpression "t<$to?1.0:Ymin";
        variables       "Ymin=1.0-$Zmax;t=time();";
    }

    outletFlow
    {
     	type            zeroGradient;
    }

    outletProbe
    {
        type            zeroGradient;
    }

    top
    {
     	type            zeroGradient;
    }

    wedgeFront
    {
        type            wedge;
    }

    wedgeBack
    {
        type            wedge;
    }

    axis
    {
        type            symmetryPlane;
    }

    wallProbe
    {
        type            zeroGradient;
    }
}
