FoamFile
{
    version     2.0;
    format      ascii;
    class       dictionary;
    location    "0";
    object      commonSettings;
}

tc      0.1;
to      0.1;
Uinlet  1.0;
R       3.0;
L       0.002;
mu      1.81e-5;
Zmax    1E-6;
T       293.15;
