FoamFile
{
    version     2.0;
    format	    ascii;
    class	    dictionary;
    location    "constant";
    object	    turbulenceProperties;
}

turbModel zeroTerm;

Coeffs
{
    velocityName    U;
    densityName     rho;
    massFluxName    phi;
    viscosityName   muEff;
    diffusivityName kEff;
    cs              0.1;
    c1              2.0;
    Prt             0.7;
    deltaCoeff      1.0;
}
