FoamFile
{
    version     2.0;
    format      ascii;
    class       volVectorField;
    location    "0";
    object      U;
}

dimensions      [0 1 -1 0 0 0 0];

internalField   uniform (0 0 0);

boundaryField
{
    inlet
    {   
        type            zeroGradient;
    }
    outlet
    {
        type            fixedMeanVelocity;
        meanU           table
        (
            (0.0 0.0)
            (0.1 0.212206590789194)
        );
        value           uniform (0 0 0);
    }
    wall
    {
        type            fixedValue;
        value           uniform (0 0 0);
    }
    front     
    {
        type            wedge;
    }
    back     
    {
        type            wedge;
    }
    axis
    {
        type            symmetryPlane;
    }
}
