FoamFile
{
    version     2.0;
    format      ascii;
    class       dictionary;
    location    "constant";
    object      coalescenceProperties;
}

coalescenceModel     zeroTerm;

Coeffs
{
    W   1.33333333;
}
