FoamFile
{
    version     2.0;
    format      ascii;
    class       dictionary;
    location    "constant";
    object      brownianDiffusionProperties;
}

brownianDiffusionModel StokesEinstein;

Coeffs
{
    Dcrit           1E-9;
}
