FoamFile
{
    version     2.0;
    format      ascii;
    class       dictionary;
    location    "constant";
    object      driftVelocityProperties;
}

driftVelocityModel FrederixDrift;

driftVelocityModelParameters
{
    g           (0 0 0);
    TOL         1E-6;
    maxIter     20;
    SchillerNaumann false;
    kappa       1.0;
    Cunningham  false;
    maxSkip     20;

}
