FoamFile
{
    version     2.0;
    format      ascii;
    class       volScalarField;
    location    "0";
    object      AirY;
}

dimensions      [0 0 0 0 0 0 0];

internalField   uniform 1.0;

boundaryField
{
    inlet
    {
        type            saturatedVaporMixture;
        value           uniform 1.0;
    }
    outlet
    {
        type            zeroGradient;
    }
    wall
    {
        type            zeroGradient;
    }
    front
    {
        type            wedge;
    }
    back
    {
        type            wedge;
    }
    axis
    {
        type            symmetryPlane;
    }
}
