FoamFile
{
    version     2.0;
    format      ascii;
    class       volScalarField;
    location    "0";
    object      k;
}

dimensions      [0 2 -2 0 0 0 0];

internalField   uniform 0.01;

boundaryField
{
    inlet
    {
        type        fixedValue;
        value       $internalField;
    }

    outlet
    {
        type        inletOutlet;
        inletValue  $internalField;
        value       $internalField;
    }

    walls
    {
        type        kqRWallFunction;
        value       $internalField;
    }

    empties
    {
        type        empty;
    }
}
