FoamFile
{
    version     2.0;
    format      ascii;
    class       volScalarField;
    location    "0";
    object      T;
}

dimensions      [0 0 0 1 0 0 0];

internalField   uniform 334.85;

boundaryField
{
    inlet
    {
        type        fixedValue;
        value       uniform 375.15;
    }

    outlet
    {
        type        inletOutlet;
        inletValue  $internalField;
        value       $internalField;
    }

    walls
    {
        type        fixedValue;
        value       $internalField;
    }

    front
    {
        type        wedge;
    }

    back
    {
        type        wedge;
    }

    axis
    {
        type        empty;
    }
}
