FoamFile
{
    version     2.0;
    format      ascii;
    class       volScalarField;
    location    "0";
    object      T;
}

dimensions      [0 0 0 1 0 0 0];

internalField   uniform 299.5;

boundaryField
{
    walls
    {
        type            zeroGradient;
    }
}
