FoamFile
{
    version         2.0;
    format          ascii;
    class           dictionary;
    location        system;
    object          probeLocationsDict;
}

probeLocations
(
    (0.75 0 1E-8)
);

fields
(
    rho
    M
    DBPZ
);
