FoamFile
{
    version     2.0;
    format      ascii;
    class       dictionary;
    object      blockMeshDict;
}

convertToMeters 1.0;

vertices
(
    (-0.004 0.011 0.0004)
    (-0.004 0.011 -0.0004)
    (-0.004 0.0118 -0.0004)
    (-0.004 0.0118 0.0004)

    (-0.004 0.0099857864376269 0.0014142135623731)
    (-0.004 0.0099857864376269 -0.0014142135623731)
    (-0.004 0.0128142135623731 -0.0014142135623731)
    (-0.004 0.0128142135623731 0.0014142135623731)
    
    (0.0259070781254618 0.011 0.0004)
    (0.0259070781254618 0.011 -0.0004)
    (0.0259070781254618 0.0118 -0.0004)
    (0.0259070781254618 0.0118 0.0004)
    
    (0.0259070781254618 0.0099857864376269 0.0014142135623731)
    (0.0259070781254618 0.0099857864376269 -0.0014142135623731)
    (0.0259070781254618 0.0128142135623731 -0.0014142135623731)
    (0.0259070781254618 0.0128142135623731 0.0014142135623731)
);

blocks
(
    hex (1 9 10 2 0 8 11 3)   (180 5 5) simpleGrading (1 1 1)
    hex (5 13 14 6 1 9 10 2)  (180 5 20) simpleGrading (1 1 5)
    hex (2 10 14 6 3 11 15 7) (180 20 5) simpleGrading (1 0.2 1)
    hex (0 8 11 3 4 12 15 7)  (180 5 20) simpleGrading (1 1 0.2)
    hex (5 13 9 1 4 12 8 0)   (180 20 5) simpleGrading (1 5 1)
);

edges
(
    arc 5 6 (-0.004 0.0114 -0.002)
    arc 6 7 (-0.004 0.0134 0.0)
    arc 7 4 (-0.004 0.0114 0.002)
    arc 4 5 (-0.004 0.0094 0.0)

    arc 13 14 (0.0259070781254618 0.0114 -0.002)
    arc 14 15 (0.0259070781254618 0.0134 0.0)
    arc 15 12 (0.0259070781254618 0.0114 0.002)
    arc 12 13 (0.0259070781254618 0.0094 0.0)
);

boundary
(
    inlet
    {
        type patch;
        faces
        (
            (0 1 2 3)
            (1 5 6 2)
            (2 6 7 3)
            (0 3 7 4)
            (4 5 1 0)
        );
    }
    
    outlet
    {
        type patch;
        faces
        (            
            (9 8 11 10)
            (13 9 10 14)
            (10 11 15 14)
            (8 12 15 11)
            (13 12 8 9)
        );
    }
    
    walls
    {
        type wall;
        faces
        (
            (5 13 14 6)
            (6 14 15 7)
            (7 15 12 4)
            (4 12 13 5)
        );
    }
);

mergePatchPairs
(
);

